Version 4
SHEET 1 880 680
WIRE -1 -21 596 -21
WIRE -1 59 596 59
WIRE -1 -1 596 -1
WIRE -1 -1 596 -1
WIRE -1 -17 596 -17
WIRE -1 47 596 47
WIRE -1 -21 596 -21
WIRE -1 59 596 59
WIRE -1 -17 596 -17
WIRE -1 47 596 47
WIRE -1 -21 596 -21
WIRE -1 59 596 59
WIRE -1 -1 596 -1
WIRE -1 -1 596 -1
WIRE -1 -1 596 -1
WIRE -1 -1 596 -1
WIRE -1 -1 596 -1
WIRE -1 -1 596 -1
WIRE -1 -1 596 -1
WIRE -1 -1 596 -1
WIRE -1 -21 596 -21
WIRE -1 59 596 59
WIRE -1 -21 596 -21
WIRE -1 59 596 59
WIRE -1 -21 596 -21
WIRE -1 59 596 59
WIRE -1 -17 596 -17
WIRE -1 47 596 47
WIRE -1 -21 596 -21
WIRE -1 59 596 59
WIRE -1 -21 596 -21
WIRE -1 59 596 59
WIRE -1 -21 596 -21
WIRE -1 59 596 59
WIRE -1 -21 596 -21
WIRE -1 59 596 59
WIRE -1 -21 596 -21
WIRE -1 59 596 59
WIRE -1 -17 596 -17
WIRE -1 47 596 47
WIRE 638 473 618 474
WIRE 375 426 354 434
WIRE 339 386 404 384
WIRE 210 347 64 348
WIRE 339 343 296 345
WIRE 603 347 393 352
WIRE 37 301 39 270
WIRE 370 285 374 259
WIRE 404 239 388 239
WIRE 321 240 343 249
WIRE 388 221 404 229
WIRE 37 181 45 220
WIRE 362 173 361 211
WIRE 224 108 88 120
WIRE 596 104 616 156
SYMBOL voltage 95 -21 R90
SYMATTR InstName V0
FLAG -1 -1 0
SYMBOL cap -17 -17 R0
SYMATTR InstName C0
SYMBOL voltage -17 -21 R270
SYMATTR InstName V1
SYMBOL cap -17 -17 R0
SYMATTR InstName C1
SYMBOL voltage -1 75 R180
SYMATTR InstName V2
FLAG -1 -1 0
FLAG -1 -1 0
FLAG -1 -1 0
FLAG -1 -1 0
SYMBOL res -17 -37 R0
SYMATTR InstName R0
SYMBOL res -17 -37 R0
SYMATTR InstName R1
SYMBOL res -17 -37 R0
SYMATTR InstName R2
SYMBOL diode 63 -33 R90
SYMATTR InstName D0
SYMBOL res -17 -37 R0
SYMATTR InstName R3
SYMBOL res -17 -37 R0
SYMATTR InstName R4
SYMBOL res -17 -37 R0
SYMATTR InstName R5
SYMBOL res -17 -37 R0
SYMATTR InstName R6
SYMBOL ind -17 -37 R0
SYMATTR InstName L0
SYMBOL diode 63 -33 R90
SYMATTR InstName D1
